/*--------------------------------*- C++ -*----------------------------------*\
  =========                 |
  \\      /  F ield         | OpenFOAM: The Open Source CFD Toolbox
   \\    /   O peration     | Website:  https://openfoam.org
    \\  /    A nd           | Version:  tofu
     \\/     M anipulation  |
\*---------------------------------------------------------------------------*/
FoamFile
{
    version     2.0;
    format      ascii;
    class       extendedFeatureEdgeMesh;
    location    "constant/extendedFeatureEdgeMesh";
    object      cylinder.extendedFeatureEdgeMesh;
}
// * * * * * * * * * * * * * * * * * * * * * * * * * * * * * * * * * * * * * //

// points

48
(
(-0 -5 -2)
(-0.517638 -5 -1.93185)
(-0 5 -2)
(0.517638 5 -1.93185)
(0.517638 -5 -1.93185)
(1 -5 -1.73205)
(2 5 -0)
(1.93185 5 0.517638)
(1 5 -1.73205)
(1.41421 5 -1.41421)
(1.93185 -5 0.517638)
(2 -5 -0)
(1.41421 -5 -1.41421)
(1.73205 5 1)
(1.73205 -5 1)
(1.73205 -5 -1)
(1.73205 5 -1)
(1.41421 5 1.41421)
(1.93185 5 -0.517638)
(1.41421 -5 1.41421)
(1.93185 -5 -0.517638)
(1 5 1.73205)
(1 -5 1.73205)
(0.517638 5 1.93185)
(0.517638 -5 1.93185)
(0 5 2)
(0 -5 2)
(-0.517638 5 1.93185)
(-0.517638 -5 1.93185)
(-1 5 1.73205)
(-1 -5 1.73205)
(-1.41421 5 1.41421)
(-1.41421 -5 1.41421)
(-1.73205 5 1)
(-1.73205 -5 1)
(-1.93185 5 0.517638)
(-1.93185 -5 0.517638)
(-2 -5 -0)
(-2 5 -0)
(-1.93185 -5 -0.517638)
(-1.93185 5 -0.517638)
(-1.73205 -5 -1)
(-1.73205 5 -1)
(-1.41421 -5 -1.41421)
(-1.41421 5 -1.41421)
(-1 5 -1.73205)
(-1 -5 -1.73205)
(-0.517638 5 -1.93185)
)

// edges

48
(
(0 1)
(2 3)
(4 0)
(5 4)
(6 7)
(3 8)
(8 9)
(10 11)
(12 5)
(7 13)
(14 10)
(15 12)
(9 16)
(13 17)
(16 18)
(19 14)
(20 15)
(18 6)
(17 21)
(11 20)
(22 19)
(21 23)
(24 22)
(23 25)
(26 24)
(25 27)
(28 26)
(27 29)
(30 28)
(29 31)
(32 30)
(31 33)
(34 32)
(33 35)
(36 34)
(37 36)
(35 38)
(39 37)
(38 40)
(41 39)
(40 42)
(43 41)
(42 44)
(44 45)
(46 43)
(1 46)
(45 47)
(47 2)
)

// concaveStart mixedStart nonFeatureStart
0 0 0
// internalStart flatStart openStart multipleStart
48 48 48 48
// normals

88
(
(-0.130526 0 -0.991445)
(0 -1 0)
(0.130526 0 -0.991445)
(0 1 0)
(0.130526 0 -0.991445)
(0 -1 0)
(0.382684 0 -0.923879)
(0 -1 0)
(0.991445 -0 0.130526)
(0 1 0)
(0.382684 0 -0.923879)
(0 1 0)
(0.608761 0 -0.793354)
(0 1 0)
(0.991445 0 0.130526)
(0 -1 0)
(0.608761 0 -0.793354)
(0 -1 0)
(0.923879 -0 0.382684)
(0 1 0)
(0.923879 0 0.382684)
(0 -1 0)
(0.793354 0 -0.608761)
(0 -1 0)
(0.793354 0 -0.608761)
(0 1 0)
(0.793354 -0 0.608761)
(0.923879 0 -0.382684)
(0 1 0)
(0.793354 0 0.608761)
(0.923879 0 -0.382684)
(0 -1 -0)
(0.991445 0 -0.130526)
(0.608761 -0 0.793354)
(0 1 0)
(0.991445 0 -0.130526)
(0.608761 0 0.793354)
(0 -1 0)
(0.382684 -0 0.923879)
(0 1 0)
(0.382684 0 0.923879)
(0 -1 0)
(0.130526 -0 0.991445)
(0.130526 0 0.991445)
(-0.130526 0 0.991445)
(0 1 0)
(-0.130526 0 0.991445)
(0 -1 0)
(-0.382684 0 0.923879)
(0 1 0)
(-0.382684 0 0.923879)
(0 -1 0)
(-0.608761 0 0.793354)
(-0 1 0)
(-0.608761 0 0.793354)
(-0 -1 0)
(-0.793354 0 0.608761)
(-0 1 0)
(-0.793354 0 0.608761)
(0 -1 0)
(-0.923879 0 0.382684)
(-0.923879 0 0.382684)
(-0.991445 0 0.130526)
(0 -1 0)
(-0.991445 0 0.130526)
(-0 1 0)
(-0.991445 0 -0.130526)
(0 -1 0)
(-0.991445 0 -0.130526)
(-0 1 0)
(-0.923879 0 -0.382684)
(0 -1 0)
(-0.923879 0 -0.382684)
(-0 1 0)
(-0.793354 0 -0.608761)
(0 -1 0)
(-0.793354 0 -0.608761)
(-0 1 0)
(-0.608761 0 -0.793354)
(-0 1 0)
(-0.608761 0 -0.793354)
(0 -1 0)
(-0.382684 0 -0.923879)
(0 -1 0)
(-0.382684 0 -0.923879)
(-0 1 0)
(-0.130526 0 -0.991445)
(-0 1 0)
)

// normal volume types

88
(
0
0
0
0
0
0
0
0
0
0
0
0
0
0
0
0
0
0
0
0
0
0
0
0
0
0
0
0
0
0
0
0
0
0
0
0
0
0
0
0
0
0
0
0
0
0
0
0
0
0
0
0
0
0
0
0
0
0
0
0
0
0
0
0
0
0
0
0
0
0
0
0
0
0
0
0
0
0
0
0
0
0
0
0
0
0
0
0
)

// normalDirections

48
(
2(1 -1)
2(1 -1)
2(1 -1)
2(1 -1)
2(1 -1)
2(1 -1)
2(1 -1)
2(1 -1)
2(1 -1)
2(1 -1)
2(1 -1)
2(1 -1)
2(1 -1)
2(1 -1)
2(1 -1)
2(1 -1)
2(1 -1)
2(1 -1)
2(1 -1)
2(1 -1)
2(1 -1)
2(1 -1)
2(1 -1)
2(1 -1)
2(1 -1)
2(1 -1)
2(1 -1)
2(1 -1)
2(1 -1)
2(1 -1)
2(1 -1)
2(1 -1)
2(1 -1)
2(1 -1)
2(1 -1)
2(1 -1)
2(1 -1)
2(1 -1)
2(1 -1)
2(1 -1)
2(1 -1)
2(1 -1)
2(1 -1)
2(1 -1)
2(1 -1)
2(1 -1)
2(1 -1)
2(1 -1)
)

// edgeNormals

48
(
2(0 1)
2(2 3)
2(4 5)
2(6 7)
2(8 9)
2(10 11)
2(12 13)
2(14 15)
2(16 17)
2(18 19)
2(20 21)
2(22 23)
2(24 25)
2(26 19)
2(27 28)
2(29 21)
2(30 31)
2(32 9)
2(33 34)
2(35 15)
2(36 37)
2(38 39)
2(40 41)
2(42 39)
2(43 41)
2(44 45)
2(46 47)
2(48 49)
2(50 51)
2(52 53)
2(54 55)
2(56 57)
2(58 59)
2(60 57)
2(61 59)
2(62 63)
2(64 65)
2(66 67)
2(68 69)
2(70 71)
2(72 73)
2(74 75)
2(76 77)
2(78 79)
2(80 81)
2(82 83)
2(84 85)
2(86 87)
)

// featurePointNormals
0()
// featurePointEdges
0()
// regionEdges
0()


// ************************************************************************* //
